Омепразол
 OpenBabel12262515493D

 43 45  0  0  0  0  0  0  0  0999 V2000
    3.2282    1.0636   13.5015 C   0  0  0  0  0  0  0  0  0  0  0  0
    4.1278    0.3638   12.7246 O   0  0  0  0  0  0  0  0  0  0  0  0
    4.3589    0.5693   11.4022 C   0  0  0  0  0  0  0  0  0  0  0  0
    5.3156   -0.2452   10.7615 C   0  0  0  0  0  0  0  0  0  0  0  0
    5.5487   -0.0354    9.4057 C   0  0  0  0  0  0  0  0  0  0  0  0
    4.8882    0.9194    8.6930 C   0  0  0  0  0  0  0  0  0  0  0  0
    3.9389    1.7483    9.2797 C   0  0  0  0  0  0  0  0  0  0  0  0
    3.6722    1.5698   10.6509 C   0  0  0  0  0  0  0  0  0  0  0  0
    5.3005    0.9061    7.4130 N   0  0  0  0  0  0  0  0  0  0  0  0
    6.2291   -0.0858    7.3903 C   0  0  0  0  0  0  0  0  0  0  0  0
    6.3996   -0.6777    8.5955 N   0  0  0  0  0  0  0  0  0  0  0  0
    7.1538   -0.5758    5.9272 S   0  0  3  0  0  0  0  0  0  0  0  0
    6.0369   -0.1488    4.9601 O   0  0  0  0  0  0  0  0  0  0  0  0
    8.0598    1.0095    5.7672 C   0  0  0  0  0  0  0  0  0  0  0  0
    9.0585    1.1612    6.8914 C   0  0  0  0  0  0  0  0  0  0  0  0
    9.9883    0.1847    7.0282 N   0  0  0  0  0  0  0  0  0  0  0  0
   10.9325    0.2035    7.9948 C   0  0  0  0  0  0  0  0  0  0  0  0
   10.9994    1.2568    8.9176 C   0  0  0  0  0  0  0  0  0  0  0  0
   12.0895    1.1824    9.9574 C   0  0  0  0  0  0  0  0  0  0  0  0
   10.0453    2.3170    8.8140 C   0  0  0  0  0  0  0  0  0  0  0  0
    9.9958    3.4057    9.6386 O   0  0  0  0  0  0  0  0  0  0  0  0
   10.7850    3.7760   10.7046 C   0  0  0  0  0  0  0  0  0  0  0  0
    9.0668    2.2603    7.7861 C   0  0  0  0  0  0  0  0  0  0  0  0
    8.0451    3.3697    7.6431 C   0  0  0  0  0  0  0  0  0  0  0  0
    3.2602    0.6686   14.5375 H   0  0  0  0  0  0  0  0  0  0  0  0
    2.1981    0.9355   13.1057 H   0  0  0  0  0  0  0  0  0  0  0  0
    3.4976    2.1410   13.5244 H   0  0  0  0  0  0  0  0  0  0  0  0
    5.8528   -1.0121   11.3050 H   0  0  0  0  0  0  0  0  0  0  0  0
    3.4222    2.5044    8.7029 H   0  0  0  0  0  0  0  0  0  0  0  0
    2.9348    2.2085   11.1177 H   0  0  0  0  0  0  0  0  0  0  0  0
    7.0494   -1.4583    8.8375 H   0  0  0  0  0  0  0  0  0  0  0  0
    7.3414    1.8504    5.7032 H   0  0  0  0  0  0  0  0  0  0  0  0
    8.6207    0.9866    4.8093 H   0  0  0  0  0  0  0  0  0  0  0  0
   11.6374   -0.6171    8.0386 H   0  0  0  0  0  0  0  0  0  0  0  0
   12.7095    0.2677    9.8426 H   0  0  0  0  0  0  0  0  0  0  0  0
   11.6526    1.1348   10.9735 H   0  0  0  0  0  0  0  0  0  0  0  0
   12.7818    2.0402    9.8568 H   0  0  0  0  0  0  0  0  0  0  0  0
   10.4061    4.7400   11.1014 H   0  0  0  0  0  0  0  0  0  0  0  0
   11.8297    3.9473   10.3793 H   0  0  0  0  0  0  0  0  0  0  0  0
   10.7116    3.0364   11.5252 H   0  0  0  0  0  0  0  0  0  0  0  0
    8.1565    4.1755    8.3955 H   0  0  0  0  0  0  0  0  0  0  0  0
    7.0225    2.9587    7.7593 H   0  0  0  0  0  0  0  0  0  0  0  0
    8.1444    3.8420    6.6431 H   0  0  0  0  0  0  0  0  0  0  0  0
  1  2  1  0  0  0  0
  1 25  1  0  0  0  0
  1 26  1  0  0  0  0
  1 27  1  0  0  0  0
  2  3  1  0  0  0  0
  3  4  2  0  0  0  0
  3  8  1  0  0  0  0
  4  5  1  0  0  0  0
  4 28  1  0  0  0  0
  5  6  2  0  0  0  0
  5 11  1  0  0  0  0
  6  7  1  0  0  0  0
  6  9  1  0  0  0  0
  7  8  2  0  0  0  0
  7 29  1  0  0  0  0
  8 30  1  0  0  0  0
  9 10  2  0  0  0  0
 10 11  1  0  0  0  0
 10 12  1  0  0  0  0
 11 31  1  0  0  0  0
 12 13  2  0  0  0  0
 12 14  1  0  0  0  0
 14 15  1  0  0  0  0
 14 32  1  0  0  0  0
 14 33  1  0  0  0  0
 15 16  2  0  0  0  0
 15 23  1  0  0  0  0
 16 17  1  0  0  0  0
 17 18  2  0  0  0  0
 17 34  1  0  0  0  0
 18 19  1  0  0  0  0
 18 20  1  0  0  0  0
 19 35  1  0  0  0  0
 19 36  1  0  0  0  0
 19 37  1  0  0  0  0
 20 21  1  0  0  0  0
 20 23  2  0  0  0  0
 21 22  1  0  0  0  0
 22 38  1  0  0  0  0
 22 39  1  0  0  0  0
 22 40  1  0  0  0  0
 23 24  1  0  0  0  0
 24 41  1  0  0  0  0
 24 42  1  0  0  0  0
 24 43  1  0  0  0  0
M  END
>  <Energy>
422.611

$$$$
