MODEL 1
REMARK VINA RESULT:     0.000      0.000      0.000
REMARK INTER + INTRA:          -0.960
REMARK INTER:                   0.000
REMARK INTRA:                  -0.960
REMARK UNBOUND:                -0.960
REMARK SMILES COc1ccc2nc([S@@](=O)Cc3ncc(C)c(OC)c3C)[nH]c2c1
REMARK SMILES IDX 11 1 9 2 10 3 8 4 3 5 24 6 4 7 23 8 5 9 6 10 22 11 7 12 2 14
REMARK SMILES IDX 1 15 12 16 13 17 20 18 14 19 17 20 21 21 15 22 16 23 18 24
REMARK SMILES IDX 19 25
REMARK H PARENT 22 13
REMARK Flexibility Score: inf
ROOT
ATOM      1  C   UNL A   1      35.048  41.227  36.094  1.00  0.00     0.170 C 
ENDROOT
BRANCH   1   2
ATOM      2  S   UNL A   1      34.923  40.696  34.344  1.00  0.00     0.095 S 
ATOM      3  O   UNL A   1      36.448  40.633  34.151  1.00  0.00    -0.251 OA
BRANCH   2   4
ATOM      4  C   UNL A   1      34.796  42.363  33.679  1.00  0.00     0.197 A 
ATOM      5  C   UNL A   1      33.698  46.341  31.950  1.00  0.00     0.121 A 
ATOM      6  C   UNL A   1      33.119  45.104  32.300  1.00  0.00     0.074 A 
ATOM      7  C   UNL A   1      35.094  46.549  32.161  1.00  0.00     0.049 A 
ATOM      8  C   UNL A   1      33.947  44.126  32.841  1.00  0.00     0.070 A 
ATOM      9  C   UNL A   1      35.896  45.530  32.711  1.00  0.00     0.034 A 
ATOM     10  C   UNL A   1      35.280  44.327  33.037  1.00  0.00     0.090 A 
ATOM     11  N   UNL A   1      33.627  42.888  33.243  1.00  0.00    -0.331 N 
ATOM     12  N   UNL A   1      35.840  43.225  33.567  1.00  0.00    -0.220 NA
ATOM     13  H   UNL A   1      32.689  42.433  33.224  1.00  0.00     0.169 HD
BRANCH   5  14
ATOM     14  O   UNL A   1      32.891  47.297  31.420  1.00  0.00    -0.497 OA
ATOM     15  C   UNL A   1      31.511  47.276  31.419  1.00  0.00     0.278 C 
ENDBRANCH   5  14
ENDBRANCH   2   4
ENDBRANCH   1   2
BRANCH   1  16
ATOM     16  C   UNL A   1      33.903  42.147  36.448  1.00  0.00     0.060 A 
ATOM     17  N   UNL A   1      32.648  41.668  36.274  1.00  0.00    -0.259 NA
ATOM     18  C   UNL A   1      34.083  43.461  36.949  1.00  0.00     0.014 A 
ATOM     19  C   UNL A   1      31.542  42.394  36.551  1.00  0.00     0.118 A 
ATOM     20  C   UNL A   1      32.946  44.254  37.254  1.00  0.00     0.128 A 
ATOM     21  C   UNL A   1      35.478  44.013  37.164  1.00  0.00     0.050 C 
ATOM     22  C   UNL A   1      31.643  43.702  37.046  1.00  0.00     0.010 A 
ATOM     23  C   UNL A   1      30.350  44.426  37.321  1.00  0.00     0.050 C 
BRANCH  20  24
ATOM     24  O   UNL A   1      33.193  45.510  37.735  1.00  0.00    -0.496 OA
ATOM     25  C   UNL A   1      33.116  46.028  39.008  1.00  0.00     0.278 C 
ENDBRANCH  20  24
ENDBRANCH   1  16
TORSDOF 5
ENDMDL
MODEL 2
REMARK VINA RESULT:     0.000     13.469     16.822
REMARK INTER + INTRA:          -0.960
REMARK INTER:                   0.000
REMARK INTRA:                  -0.960
REMARK UNBOUND:                -0.960
REMARK SMILES COc1ccc2nc([S@@](=O)Cc3ncc(C)c(OC)c3C)[nH]c2c1
REMARK SMILES IDX 11 1 9 2 10 3 8 4 3 5 24 6 4 7 23 8 5 9 6 10 22 11 7 12 2 14
REMARK SMILES IDX 1 15 12 16 13 17 20 18 14 19 17 20 21 21 15 22 16 23 18 24
REMARK SMILES IDX 19 25
REMARK H PARENT 22 13
REMARK Flexibility Score: inf
ROOT
ATOM      1  C   UNL A   1      28.831  39.309  45.517  1.00  0.00     0.170 C 
ENDROOT
BRANCH   1   2
ATOM      2  S   UNL A   1      28.627  37.489  45.423  1.00  0.00     0.095 S 
ATOM      3  O   UNL A   1      27.458  37.573  44.427  1.00  0.00    -0.251 OA
BRANCH   2   4
ATOM      4  C   UNL A   1      27.545  37.374  46.856  1.00  0.00     0.197 A 
ATOM      5  C   UNL A   1      25.506  36.820  50.800  1.00  0.00     0.121 A 
ATOM      6  C   UNL A   1      26.763  36.647  50.185  1.00  0.00     0.074 A 
ATOM      7  C   UNL A   1      24.417  37.341  50.038  1.00  0.00     0.049 A 
ATOM      8  C   UNL A   1      26.887  36.994  48.844  1.00  0.00     0.070 A 
ATOM      9  C   UNL A   1      24.587  37.679  48.682  1.00  0.00     0.034 A 
ATOM     10  C   UNL A   1      25.844  37.487  48.120  1.00  0.00     0.090 A 
ATOM     11  N   UNL A   1      27.969  36.917  48.057  1.00  0.00    -0.331 N 
ATOM     12  N   UNL A   1      26.235  37.736  46.858  1.00  0.00    -0.220 NA
ATOM     13  H   UNL A   1      28.923  36.582  48.313  1.00  0.00     0.169 HD
BRANCH   5  14
ATOM     14  O   UNL A   1      25.382  36.479  52.109  1.00  0.00    -0.497 OA
ATOM     15  C   UNL A   1      26.425  36.215  52.974  1.00  0.00     0.278 C 
ENDBRANCH   5  14
ENDBRANCH   2   4
ENDBRANCH   1   2
BRANCH   1  16
ATOM     16  C   UNL A   1      29.284  39.717  46.900  1.00  0.00     0.060 A 
ATOM     17  N   UNL A   1      30.435  39.171  47.360  1.00  0.00    -0.259 NA
ATOM     18  C   UNL A   1      28.572  40.631  47.717  1.00  0.00     0.014 A 
ATOM     19  C   UNL A   1      30.942  39.452  48.581  1.00  0.00     0.118 A 
ATOM     20  C   UNL A   1      29.074  40.955  49.005  1.00  0.00     0.128 A 
ATOM     21  C   UNL A   1      27.289  41.264  47.217  1.00  0.00     0.050 C 
ATOM     22  C   UNL A   1      30.290  40.345  49.444  1.00  0.00     0.010 A 
ATOM     23  C   UNL A   1      30.939  40.590  50.783  1.00  0.00     0.050 C 
BRANCH  20  24
ATOM     24  O   UNL A   1      28.339  41.845  49.737  1.00  0.00    -0.496 OA
ATOM     25  C   UNL A   1      28.537  43.179  50.013  1.00  0.00     0.278 C 
ENDBRANCH  20  24
ENDBRANCH   1  16
TORSDOF 5
ENDMDL
MODEL 3
REMARK VINA RESULT:     0.000     30.713     33.273
REMARK INTER + INTRA:          -0.960
REMARK INTER:                   0.000
REMARK INTRA:                  -0.960
REMARK UNBOUND:                -0.960
REMARK SMILES COc1ccc2nc([S@@](=O)Cc3ncc(C)c(OC)c3C)[nH]c2c1
REMARK SMILES IDX 11 1 9 2 10 3 8 4 3 5 24 6 4 7 23 8 5 9 6 10 22 11 7 12 2 14
REMARK SMILES IDX 1 15 12 16 13 17 20 18 14 19 17 20 21 21 15 22 16 23 18 24
REMARK SMILES IDX 19 25
REMARK H PARENT 22 13
REMARK Flexibility Score: inf
ROOT
ATOM      1  C   UNL A   1      30.686  34.385  66.379  1.00  0.00     0.170 C 
ENDROOT
BRANCH   1   2
ATOM      2  S   UNL A   1      30.085  35.080  67.965  1.00  0.00     0.095 S 
ATOM      3  O   UNL A   1      28.798  35.647  67.343  1.00  0.00    -0.251 OA
BRANCH   2   4
ATOM      4  C   UNL A   1      30.978  36.634  67.808  1.00  0.00     0.197 A 
ATOM      5  C   UNL A   1      33.706  40.178  67.952  1.00  0.00     0.121 A 
ATOM      6  C   UNL A   1      33.543  38.899  68.524  1.00  0.00     0.074 A 
ATOM      7  C   UNL A   1      32.766  40.638  66.981  1.00  0.00     0.049 A 
ATOM      8  C   UNL A   1      32.457  38.134  68.113  1.00  0.00     0.070 A 
ATOM      9  C   UNL A   1      31.680  39.830  66.594  1.00  0.00     0.034 A 
ATOM     10  C   UNL A   1      31.560  38.579  67.190  1.00  0.00     0.090 A 
ATOM     11  N   UNL A   1      32.101  36.906  68.513  1.00  0.00    -0.331 N 
ATOM     12  N   UNL A   1      30.614  37.647  66.980  1.00  0.00    -0.220 NA
ATOM     13  H   UNL A   1      32.583  36.296  69.210  1.00  0.00     0.169 HD
BRANCH   5  14
ATOM     14  O   UNL A   1      34.765  40.928  68.353  1.00  0.00    -0.497 OA
ATOM     15  C   UNL A   1      35.845  40.471  69.080  1.00  0.00     0.278 C 
ENDBRANCH   5  14
ENDBRANCH   2   4
ENDBRANCH   1   2
BRANCH   1  16
ATOM     16  C   UNL A   1      32.195  34.441  66.318  1.00  0.00     0.060 A 
ATOM     17  N   UNL A   1      32.877  33.811  67.303  1.00  0.00    -0.259 NA
ATOM     18  C   UNL A   1      32.911  35.106  65.291  1.00  0.00     0.014 A 
ATOM     19  C   UNL A   1      34.228  33.792  67.363  1.00  0.00     0.118 A 
ATOM     20  C   UNL A   1      34.330  35.107  65.316  1.00  0.00     0.128 A 
ATOM     21  C   UNL A   1      32.167  35.806  64.171  1.00  0.00     0.050 C 
ATOM     22  C   UNL A   1      35.001  34.432  66.384  1.00  0.00     0.010 A 
ATOM     23  C   UNL A   1      36.499  34.352  66.541  1.00  0.00     0.050 C 
BRANCH  20  24
ATOM     24  O   UNL A   1      34.956  35.765  64.295  1.00  0.00    -0.496 OA
ATOM     25  C   UNL A   1      35.600  35.298  63.171  1.00  0.00     0.278 C 
ENDBRANCH  20  24
ENDBRANCH   1  16
TORSDOF 5
ENDMDL
MODEL 4
REMARK VINA RESULT:     0.000     18.798     20.752
REMARK INTER + INTRA:          -0.960
REMARK INTER:                   0.000
REMARK INTRA:                  -0.960
REMARK UNBOUND:                -0.960
REMARK SMILES COc1ccc2nc([S@@](=O)Cc3ncc(C)c(OC)c3C)[nH]c2c1
REMARK SMILES IDX 11 1 9 2 10 3 8 4 3 5 24 6 4 7 23 8 5 9 6 10 22 11 7 12 2 14
REMARK SMILES IDX 1 15 12 16 13 17 20 18 14 19 17 20 21 21 15 22 16 23 18 24
REMARK SMILES IDX 19 25
REMARK H PARENT 22 13
REMARK Flexibility Score: inf
ROOT
ATOM      1  C   UNL A   1      24.456  32.699  46.951  1.00  0.00     0.170 C 
ENDROOT
BRANCH   1   2
ATOM      2  S   UNL A   1      25.715  32.629  45.620  1.00  0.00     0.095 S 
ATOM      3  O   UNL A   1      24.857  31.722  44.722  1.00  0.00    -0.251 OA
BRANCH   2   4
ATOM      4  C   UNL A   1      26.625  31.251  46.333  1.00  0.00     0.197 A 
ATOM      5  C   UNL A   1      29.417  28.383  48.335  1.00  0.00     0.121 A 
ATOM      6  C   UNL A   1      29.282  29.757  48.047  1.00  0.00     0.074 A 
ATOM      7  C   UNL A   1      28.401  27.473  47.913  1.00  0.00     0.049 A 
ATOM      8  C   UNL A   1      28.150  30.170  47.352  1.00  0.00     0.070 A 
ATOM      9  C   UNL A   1      27.270  27.935  47.212  1.00  0.00     0.034 A 
ATOM     10  C   UNL A   1      27.184  29.298  46.949  1.00  0.00     0.090 A 
ATOM     11  N   UNL A   1      27.809  31.408  46.970  1.00  0.00    -0.331 N 
ATOM     12  N   UNL A   1      26.208  29.958  46.301  1.00  0.00    -0.220 NA
ATOM     13  H   UNL A   1      28.337  32.294  47.129  1.00  0.00     0.169 HD
BRANCH   5  14
ATOM     14  O   UNL A   1      30.523  27.977  49.011  1.00  0.00    -0.497 OA
ATOM     15  C   UNL A   1      31.413  28.803  49.666  1.00  0.00     0.278 C 
ENDBRANCH   5  14
ENDBRANCH   2   4
ENDBRANCH   1   2
BRANCH   1  16
ATOM     16  C   UNL A   1      25.124  32.792  48.304  1.00  0.00     0.060 A 
ATOM     17  N   UNL A   1      25.966  33.833  48.507  1.00  0.00    -0.259 NA
ATOM     18  C   UNL A   1      24.908  31.857  49.347  1.00  0.00     0.014 A 
ATOM     19  C   UNL A   1      26.626  34.024  49.671  1.00  0.00     0.118 A 
ATOM     20  C   UNL A   1      25.581  32.025  50.586  1.00  0.00     0.128 A 
ATOM     21  C   UNL A   1      23.960  30.692  49.146  1.00  0.00     0.050 C 
ATOM     22  C   UNL A   1      26.464  33.138  50.746  1.00  0.00     0.010 A 
ATOM     23  C   UNL A   1      27.246  33.441  51.999  1.00  0.00     0.050 C 
BRANCH  20  24
ATOM     24  O   UNL A   1      25.324  31.089  51.548  1.00  0.00    -0.496 OA
ATOM     25  C   UNL A   1      24.543  31.140  52.682  1.00  0.00     0.278 C 
ENDBRANCH  20  24
ENDBRANCH   1  16
TORSDOF 5
ENDMDL
MODEL 5
REMARK VINA RESULT:     0.000     17.297     20.550
REMARK INTER + INTRA:          -0.960
REMARK INTER:                   0.000
REMARK INTRA:                  -0.960
REMARK UNBOUND:                -0.960
REMARK SMILES COc1ccc2nc([S@@](=O)Cc3ncc(C)c(OC)c3C)[nH]c2c1
REMARK SMILES IDX 11 1 9 2 10 3 8 4 3 5 24 6 4 7 23 8 5 9 6 10 22 11 7 12 2 14
REMARK SMILES IDX 1 15 12 16 13 17 20 18 14 19 17 20 21 21 15 22 16 23 18 24
REMARK SMILES IDX 19 25
REMARK H PARENT 22 13
REMARK Flexibility Score: inf
ROOT
ATOM      1  C   UNL A   1      32.950  39.882  50.846  1.00  0.00     0.170 C 
ENDROOT
BRANCH   1   2
ATOM      2  S   UNL A   1      31.289  40.534  51.271  1.00  0.00     0.095 S 
ATOM      3  O   UNL A   1      31.826  41.920  51.666  1.00  0.00    -0.251 OA
BRANCH   2   4
ATOM      4  C   UNL A   1      31.305  39.922  52.963  1.00  0.00     0.197 A 
ATOM      5  C   UNL A   1      30.857  37.829  56.893  1.00  0.00     0.121 A 
ATOM      6  C   UNL A   1      30.414  37.752  55.556  1.00  0.00     0.074 A 
ATOM      7  C   UNL A   1      31.757  38.868  57.276  1.00  0.00     0.049 A 
ATOM      8  C   UNL A   1      30.878  38.708  54.658  1.00  0.00     0.070 A 
ATOM      9  C   UNL A   1      32.202  39.815  56.334  1.00  0.00     0.034 A 
ATOM     10  C   UNL A   1      31.735  39.700  55.030  1.00  0.00     0.090 A 
ATOM     11  N   UNL A   1      30.599  38.836  53.354  1.00  0.00    -0.331 N 
ATOM     12  N   UNL A   1      32.020  40.482  53.974  1.00  0.00    -0.220 NA
ATOM     13  H   UNL A   1      29.977  38.233  52.772  1.00  0.00     0.169 HD
BRANCH   5  14
ATOM     14  O   UNL A   1      30.402  36.898  57.771  1.00  0.00    -0.497 OA
ATOM     15  C   UNL A   1      29.752  35.727  57.438  1.00  0.00     0.278 C 
ENDBRANCH   5  14
ENDBRANCH   2   4
ENDBRANCH   1   2
BRANCH   1  16
ATOM     16  C   UNL A   1      33.034  38.408  51.166  1.00  0.00     0.060 A 
ATOM     17  N   UNL A   1      32.131  37.593  50.571  1.00  0.00    -0.259 NA
ATOM     18  C   UNL A   1      34.002  37.853  52.041  1.00  0.00     0.014 A 
ATOM     19  C   UNL A   1      32.100  36.258  50.778  1.00  0.00     0.118 A 
ATOM     20  C   UNL A   1      34.005  36.454  52.283  1.00  0.00     0.128 A 
ATOM     21  C   UNL A   1      35.030  38.744  52.707  1.00  0.00     0.050 C 
ATOM     22  C   UNL A   1      33.025  35.640  51.633  1.00  0.00     0.010 A 
ATOM     23  C   UNL A   1      32.905  34.145  51.797  1.00  0.00     0.050 C 
BRANCH  20  24
ATOM     24  O   UNL A   1      34.966  35.987  53.134  1.00  0.00    -0.496 OA
ATOM     25  C   UNL A   1      36.144  35.314  52.896  1.00  0.00     0.278 C 
ENDBRANCH  20  24
ENDBRANCH   1  16
TORSDOF 5
ENDMDL
MODEL 6
REMARK VINA RESULT:     0.001     26.470     30.052
REMARK INTER + INTRA:          -0.960
REMARK INTER:                   0.000
REMARK INTRA:                  -0.960
REMARK UNBOUND:                -0.960
REMARK SMILES COc1ccc2nc([S@@](=O)Cc3ncc(C)c(OC)c3C)[nH]c2c1
REMARK SMILES IDX 11 1 9 2 10 3 8 4 3 5 24 6 4 7 23 8 5 9 6 10 22 11 7 12 2 14
REMARK SMILES IDX 1 15 12 16 13 17 20 18 14 19 17 20 21 21 15 22 16 23 18 24
REMARK SMILES IDX 19 25
REMARK H PARENT 22 13
REMARK Flexibility Score: inf
ROOT
ATOM      1  C   UNL A   1      16.238  52.563  60.731  1.00  0.00     0.170 C 
ENDROOT
BRANCH   1   2
ATOM      2  S   UNL A   1      15.482  52.701  59.066  1.00  0.00     0.095 S 
ATOM      3  O   UNL A   1      14.166  52.035  59.500  1.00  0.00    -0.251 OA
BRANCH   2   4
ATOM      4  C   UNL A   1      16.185  51.167  58.443  1.00  0.00     0.197 A 
ATOM      5  C   UNL A   1      18.447  47.827  56.507  1.00  0.00     0.121 A 
ATOM      6  C   UNL A   1      18.415  49.235  56.567  1.00  0.00     0.074 A 
ATOM      7  C   UNL A   1      17.504  47.069  57.265  1.00  0.00     0.049 A 
ATOM      8  C   UNL A   1      17.452  49.833  57.373  1.00  0.00     0.070 A 
ATOM      9  C   UNL A   1      16.545  47.716  58.068  1.00  0.00     0.034 A 
ATOM     10  C   UNL A   1      16.552  49.105  58.092  1.00  0.00     0.090 A 
ATOM     11  N   UNL A   1      17.231  51.137  57.585  1.00  0.00    -0.331 N 
ATOM     12  N   UNL A   1      15.738  49.928  58.778  1.00  0.00    -0.220 NA
ATOM     13  H   UNL A   1      17.750  51.947  57.182  1.00  0.00     0.169 HD
BRANCH   5  14
ATOM     14  O   UNL A   1      19.386  47.241  55.718  1.00  0.00    -0.497 OA
ATOM     15  C   UNL A   1      20.477  47.876  55.162  1.00  0.00     0.278 C 
ENDBRANCH   5  14
ENDBRANCH   2   4
ENDBRANCH   1   2
BRANCH   1  16
ATOM     16  C   UNL A   1      17.730  52.351  60.616  1.00  0.00     0.060 A 
ATOM     17  N   UNL A   1      18.437  53.289  59.942  1.00  0.00    -0.259 NA
ATOM     18  C   UNL A   1      18.406  51.238  61.175  1.00  0.00     0.014 A 
ATOM     19  C   UNL A   1      19.775  53.212  59.767  1.00  0.00     0.118 A 
ATOM     20  C   UNL A   1      19.812  51.122  61.016  1.00  0.00     0.128 A 
ATOM     21  C   UNL A   1      17.635  50.184  61.944  1.00  0.00     0.050 C 
ATOM     22  C   UNL A   1      20.510  52.137  60.290  1.00  0.00     0.010 A 
ATOM     23  C   UNL A   1      21.997  52.145  60.039  1.00  0.00     0.050 C 
BRANCH  20  24
ATOM     24  O   UNL A   1      20.399  50.026  61.583  1.00  0.00    -0.496 OA
ATOM     25  C   UNL A   1      21.148  49.886  62.730  1.00  0.00     0.278 C 
ENDBRANCH  20  24
ENDBRANCH   1  16
TORSDOF 5
ENDMDL
MODEL 7
REMARK VINA RESULT:     0.001     22.620     25.227
REMARK INTER + INTRA:          -0.959
REMARK INTER:                   0.000
REMARK INTRA:                  -0.959
REMARK UNBOUND:                -0.960
REMARK SMILES COc1ccc2nc([S@@](=O)Cc3ncc(C)c(OC)c3C)[nH]c2c1
REMARK SMILES IDX 11 1 9 2 10 3 8 4 3 5 24 6 4 7 23 8 5 9 6 10 22 11 7 12 2 14
REMARK SMILES IDX 1 15 12 16 13 17 20 18 14 19 17 20 21 21 15 22 16 23 18 24
REMARK SMILES IDX 19 25
REMARK H PARENT 22 13
REMARK Flexibility Score: inf
ROOT
ATOM      1  C   UNL A   1      46.232  47.616  55.333  1.00  0.00     0.170 C 
ENDROOT
BRANCH   1   2
ATOM      2  S   UNL A   1      47.648  47.327  56.461  1.00  0.00     0.095 S 
ATOM      3  O   UNL A   1      46.974  48.034  57.649  1.00  0.00    -0.251 OA
BRANCH   2   4
ATOM      4  C   UNL A   1      48.557  48.796  55.958  1.00  0.00     0.197 A 
ATOM      5  C   UNL A   1      51.270  51.938  54.288  1.00  0.00     0.121 A 
ATOM      6  C   UNL A   1      51.077  50.541  54.277  1.00  0.00     0.074 A 
ATOM      7  C   UNL A   1      50.379  52.764  55.038  1.00  0.00     0.049 A 
ATOM      8  C   UNL A   1      50.014  50.023  55.009  1.00  0.00     0.070 A 
ATOM      9  C   UNL A   1      49.316  52.197  55.766  1.00  0.00     0.034 A 
ATOM     10  C   UNL A   1      49.169  50.815  55.726  1.00  0.00     0.090 A 
ATOM     11  N   UNL A   1      49.639  48.744  55.146  1.00  0.00    -0.331 N 
ATOM     12  N   UNL A   1      48.238  50.061  56.336  1.00  0.00    -0.220 NA
ATOM     13  H   UNL A   1      50.080  47.899  54.722  1.00  0.00     0.169 HD
BRANCH   5  14
ATOM     14  O   UNL A   1      52.309  52.446  53.576  1.00  0.00    -0.497 OA
ATOM     15  C   UNL A   1      53.051  51.761  52.636  1.00  0.00     0.278 C 
ENDBRANCH   5  14
ENDBRANCH   2   4
ENDBRANCH   1   2
BRANCH   1  16
ATOM     16  C   UNL A   1      46.719  47.812  53.916  1.00  0.00     0.060 A 
ATOM     17  N   UNL A   1      47.455  46.815  53.371  1.00  0.00    -0.259 NA
ATOM     18  C   UNL A   1      46.440  48.971  53.149  1.00  0.00     0.014 A 
ATOM     19  C   UNL A   1      47.951  46.873  52.115  1.00  0.00     0.118 A 
ATOM     20  C   UNL A   1      46.941  49.068  51.823  1.00  0.00     0.128 A 
ATOM     21  C   UNL A   1      45.607  50.094  53.734  1.00  0.00     0.050 C 
ATOM     22  C   UNL A   1      47.718  47.989  51.299  1.00  0.00     0.010 A 
ATOM     23  C   UNL A   1      48.315  47.955  49.914  1.00  0.00     0.050 C 
BRANCH  20  24
ATOM     24  O   UNL A   1      46.632  50.211  51.140  1.00  0.00    -0.496 OA
ATOM     25  C   UNL A   1      45.715  50.455  50.142  1.00  0.00     0.278 C 
ENDBRANCH  20  24
ENDBRANCH   1  16
TORSDOF 5
ENDMDL
MODEL 8
REMARK VINA RESULT:     0.001      6.907      7.979
REMARK INTER + INTRA:          -0.959
REMARK INTER:                   0.000
REMARK INTRA:                  -0.959
REMARK UNBOUND:                -0.960
REMARK SMILES COc1ccc2nc([S@@](=O)Cc3ncc(C)c(OC)c3C)[nH]c2c1
REMARK SMILES IDX 11 1 9 2 10 3 8 4 3 5 24 6 4 7 23 8 5 9 6 10 22 11 7 12 2 14
REMARK SMILES IDX 1 15 12 16 13 17 20 18 14 19 17 20 21 21 15 22 16 23 18 24
REMARK SMILES IDX 19 25
REMARK H PARENT 22 13
REMARK Flexibility Score: inf
ROOT
ATOM      1  C   UNL A   1      33.525  51.978  36.228  1.00  0.00     0.170 C 
ENDROOT
BRANCH   1   2
ATOM      2  S   UNL A   1      34.595  50.714  35.442  1.00  0.00     0.095 S 
ATOM      3  O   UNL A   1      35.574  51.755  34.873  1.00  0.00    -0.251 OA
BRANCH   2   4
ATOM      4  C   UNL A   1      33.639  50.617  33.921  1.00  0.00     0.197 A 
ATOM      5  C   UNL A   1      30.976  49.691  30.446  1.00  0.00     0.121 A 
ATOM      6  C   UNL A   1      31.374  49.161  31.691  1.00  0.00     0.074 A 
ATOM      7  C   UNL A   1      31.516  50.938  30.009  1.00  0.00     0.049 A 
ATOM      8  C   UNL A   1      32.289  49.886  32.447  1.00  0.00     0.070 A 
ATOM      9  C   UNL A   1      32.441  51.639  30.807  1.00  0.00     0.034 A 
ATOM     10  C   UNL A   1      32.804  51.074  32.023  1.00  0.00     0.090 A 
ATOM     11  N   UNL A   1      32.808  49.585  33.645  1.00  0.00    -0.331 N 
ATOM     12  N   UNL A   1      33.662  51.556  32.940  1.00  0.00    -0.220 NA
ATOM     13  H   UNL A   1      32.614  48.745  34.233  1.00  0.00     0.169 HD
BRANCH   5  14
ATOM     14  O   UNL A   1      30.084  48.983  29.705  1.00  0.00    -0.497 OA
ATOM     15  C   UNL A   1      29.329  47.920  30.155  1.00  0.00     0.278 C 
ENDBRANCH   5  14
ENDBRANCH   2   4
ENDBRANCH   1   2
BRANCH   1  16
ATOM     16  C   UNL A   1      32.082  51.528  36.215  1.00  0.00     0.060 A 
ATOM     17  N   UNL A   1      31.797  50.347  36.814  1.00  0.00    -0.259 NA
ATOM     18  C   UNL A   1      31.037  52.276  35.618  1.00  0.00     0.014 A 
ATOM     19  C   UNL A   1      30.547  49.835  36.865  1.00  0.00     0.118 A 
ATOM     20  C   UNL A   1      29.709  51.773  35.653  1.00  0.00     0.128 A 
ATOM     21  C   UNL A   1      31.331  53.606  34.954  1.00  0.00     0.050 C 
ATOM     22  C   UNL A   1      29.464  50.518  36.293  1.00  0.00     0.010 A 
ATOM     23  C   UNL A   1      28.111  49.861  36.404  1.00  0.00     0.050 C 
BRANCH  20  24
ATOM     24  O   UNL A   1      28.751  52.548  35.061  1.00  0.00    -0.496 OA
ATOM     25  C   UNL A   1      27.785  53.369  35.598  1.00  0.00     0.278 C 
ENDBRANCH  20  24
ENDBRANCH   1  16
TORSDOF 5
ENDMDL
MODEL 9
REMARK VINA RESULT:     0.002     30.120     32.813
REMARK INTER + INTRA:          -0.958
REMARK INTER:                   0.000
REMARK INTRA:                  -0.958
REMARK UNBOUND:                -0.960
REMARK SMILES COc1ccc2nc([S@@](=O)Cc3ncc(C)c(OC)c3C)[nH]c2c1
REMARK SMILES IDX 11 1 9 2 10 3 8 4 3 5 24 6 4 7 23 8 5 9 6 10 22 11 7 12 2 14
REMARK SMILES IDX 1 15 12 16 13 17 20 18 14 19 17 20 21 21 15 22 16 23 18 24
REMARK SMILES IDX 19 25
REMARK H PARENT 22 13
REMARK Flexibility Score: inf
ROOT
ATOM      1  C   UNL A   1      12.754  36.808  55.429  1.00  0.00     0.170 C 
ENDROOT
BRANCH   1   2
ATOM      2  S   UNL A   1      14.145  35.732  55.948  1.00  0.00     0.095 S 
ATOM      3  O   UNL A   1      13.356  34.433  55.717  1.00  0.00    -0.251 OA
BRANCH   2   4
ATOM      4  C   UNL A   1      13.750  35.793  57.702  1.00  0.00     0.197 A 
ATOM      5  C   UNL A   1      13.379  36.461  62.111  1.00  0.00     0.121 A 
ATOM      6  C   UNL A   1      14.171  36.845  61.009  1.00  0.00     0.074 A 
ATOM      7  C   UNL A   1      12.288  35.562  61.912  1.00  0.00     0.049 A 
ATOM      8  C   UNL A   1      13.851  36.323  59.760  1.00  0.00     0.070 A 
ATOM      9  C   UNL A   1      12.000  35.056  60.630  1.00  0.00     0.034 A 
ATOM     10  C   UNL A   1      12.811  35.462  59.576  1.00  0.00     0.090 A 
ATOM     11  N   UNL A   1      14.453  36.541  58.584  1.00  0.00    -0.331 N 
ATOM     12  N   UNL A   1      12.727  35.112  58.281  1.00  0.00    -0.220 NA
ATOM     13  H   UNL A   1      15.278  37.151  58.391  1.00  0.00     0.169 HD
BRANCH   5  14
ATOM     14  O   UNL A   1      13.692  36.968  63.331  1.00  0.00    -0.497 OA
ATOM     15  C   UNL A   1      14.550  38.022  63.568  1.00  0.00     0.278 C 
ENDBRANCH   5  14
ENDBRANCH   2   4
ENDBRANCH   1   2
BRANCH   1  16
ATOM     16  C   UNL A   1      12.768  38.101  56.211  1.00  0.00     0.060 A 
ATOM     17  N   UNL A   1      13.891  38.854  56.140  1.00  0.00    -0.259 NA
ATOM     18  C   UNL A   1      11.677  38.551  56.996  1.00  0.00     0.014 A 
ATOM     19  C   UNL A   1      14.029  40.028  56.796  1.00  0.00     0.118 A 
ATOM     20  C   UNL A   1      11.781  39.781  57.698  1.00  0.00     0.128 A 
ATOM     21  C   UNL A   1      10.405  37.730  57.079  1.00  0.00     0.050 C 
ATOM     22  C   UNL A   1      12.992  40.534  57.593  1.00  0.00     0.010 A 
ATOM     23  C   UNL A   1      13.246  41.851  58.283  1.00  0.00     0.050 C 
BRANCH  20  24
ATOM     24  O   UNL A   1      10.691  40.155  58.432  1.00  0.00    -0.496 OA
ATOM     25  C   UNL A   1       9.713  41.095  58.195  1.00  0.00     0.278 C 
ENDBRANCH  20  24
ENDBRANCH   1  16
TORSDOF 5
ENDMDL
